7
https://www-wales.ch.cam.ac.uk/~wales/CCD/H3O+..H2ON/gmin.html
 O     -1.169750   -0.152713    0.020251
 H     -1.863933    0.481231   -0.158847
 H     -1.633531   -0.964068    0.226313
 O      1.196095    0.370743   -0.077308
 H      0.235103    0.203653   -0.049691
 H      1.604671    0.236023    0.798535
 H      1.631346   -0.174869   -0.759254
